# generated using pymatgen
data_KRbBr2
_symmetry_space_group_name_H-M   'P 1'
_cell_length_a   5.82387371
_cell_length_b   5.82387371
_cell_length_c   5.82387371
_cell_angle_alpha   59.99999999
_cell_angle_beta   60.00000004
_cell_angle_gamma   60.00000004
_symmetry_Int_Tables_number   1
_chemical_formula_structural   KRbBr2
_chemical_formula_sum   'K1 Rb1 Br2'
_cell_volume   139.67569732
_cell_formula_units_Z   1
loop_
 _symmetry_equiv_pos_site_id
 _symmetry_equiv_pos_as_xyz
  1  'x, y, z'
loop_
 _atom_site_type_symbol
 _atom_site_label
 _atom_site_symmetry_multiplicity
 _atom_site_fract_x
 _atom_site_fract_y
 _atom_site_fract_z
 _atom_site_occupancy
  K  K0  1  0.00000000  0.00000000  0.00000000  1
  Br  Br1  1  0.25000000  0.25000000  0.25000000  1
  Br  Br2  1  0.75000000  0.75000000  0.75000000  1
  Rb  Rb3  1  0.50000000  0.50000000  0.50000000  1

